<edges>
    <edge id="edge0" from="n0" to="n1" priority="1" numLanes="1" speed="13.89"/>
    <edge id="edge1" from="n1" to="n0" priority="1" numLanes="1" speed="13.89"/>
</edges>
